# generated using pymatgen
data_ZrS2
_symmetry_space_group_name_H-M   'P 1'
_cell_length_a   3.69138255
_cell_length_b   3.69138255
_cell_length_c   6.04107701
_cell_angle_alpha   90.00000000
_cell_angle_beta   90.00000000
_cell_angle_gamma   120.00000000
_symmetry_Int_Tables_number   1
_chemical_formula_structural   ZrS2
_chemical_formula_sum   'Zr1 S2'
_cell_volume   71.28909697
_cell_formula_units_Z   1
loop_
 _symmetry_equiv_pos_site_id
 _symmetry_equiv_pos_as_xyz
  1  'x, y, z'
loop_
 _atom_type_symbol
 _atom_type_oxidation_number
  Zr4+  4.0
  S2-  -2.0
loop_
 _atom_site_type_symbol
 _atom_site_label
 _atom_site_symmetry_multiplicity
 _atom_site_fract_x
 _atom_site_fract_y
 _atom_site_fract_z
 _atom_site_occupancy
  Zr4+  Zr0  1  0.00000000  0.00000000  0.00000000  1
  S2-  S1  1  0.66666667  0.33333333  0.76209003  1
  S2-  S2  1  0.33333333  0.66666667  0.23790997  1
